<?xml version="1.0" encoding="UTF-8"?>

<!-- generated on 2025-06-04 02:19:42.396750 by randomTrips.py v1_23_1+0000-676720d13f6
<configuration>
    <net-file value="osm.net.xml.gz"/>
    <output-trip-file value="osm.truck.trips.xml"/>
    <route-file value="osm.truck.rou.xml"/>
    <prefix value="truck"/>
    <trip-attributes value="departLane=&quot;best&quot;"/>
    <fringe-start-attributes value="departSpeed=&quot;max&quot;"/>
    <vehicle-class value="truck"/>
    <fringe-factor value="5"/>
    <edge-permission value="truck"/>
    <via-edge-types value="highway.motorway,highway.motorway_link,highway.trunk_link,highway.primary_link,highway.secondary_link,highway.tertiary_link"/>
    <min-distance value="600.0"/>
    <min-distance.fringe value="10.0"/>
    <remove-loops value="True"/>
    <validate value="True"/>
    <insertion-density value="8.0"/>
</configuration>
-->

<!-- generated on 2025-06-04 02:19:41 by Eclipse SUMO duarouter Version 1.23.1
<duarouterConfiguration xmlns:xsi="http://www.w3.org/2001/XMLSchema-instance" xsi:noNamespaceSchemaLocation="http://sumo.dlr.de/xsd/duarouterConfiguration.xsd">

    <input>
        <net-file value="osm.net.xml.gz"/>
        <route-files value="osm.truck.trips.xml"/>
    </input>

    <output>
        <output-file value="osm.truck.rou.xml"/>
        <alternatives-output value="NUL"/>
    </output>

    <processing>
        <remove-loops value="true"/>
    </processing>

    <time>
        <begin value="0.0"/>
        <end value="3600.0"/>
    </time>

    <report>
        <no-warnings value="true"/>
        <ignore-errors value="true"/>
        <no-step-log value="true"/>
    </report>

</duarouterConfiguration>
-->

<routes xmlns:xsi="http://www.w3.org/2001/XMLSchema-instance" xsi:noNamespaceSchemaLocation="http://sumo.dlr.de/xsd/routes_file.xsd">
    <vType id="truck_truck" vClass="truck"/>
    <vehicle id="truck0" type="truck_truck" depart="0.00" departLane="best" departSpeed="max">
        <route edges="220663171#0 436942183 220663183#3 220663189#1 220663189#2 220663189#3 216613134#23 535372281#3 535372281#4 535372281#5 5199272#0 5199272#2 5199272#5 5199272#6 -220663174#3 -220663174#2 -220663174#0 -220663168#5 -370558333#4 -370558333#3 -1264385078"/>
    </vehicle>
    <vehicle id="truck1" type="truck_truck" depart="4.30" departLane="best">
        <route edges="437188446#0 437188446#1 437188453#0 437188453#1 437188453#2 461597731 437188452#3 437188452#4 437188452#5 11102716#1 216613128#1 216613128#2 216613128#5 216613128#6 579528238 216613134#19 216613134#21 436944113#0"/>
    </vehicle>
    <vehicle id="truck2" type="truck_truck" depart="8.60" departLane="best">
        <route edges="-370558334#0 -5199272#22 -5199272#21 -5199272#20 -5199272#19 -5199272#17 -5199272#16 -5199272#15 -5199272#13 -5199272#12 -5199272#11 -5199272#10 -5199272#9 -5199272#6 -5199272#5 -5199272#4 -5199272#1 535372281#1 11102716#0 11102716#1 -535248205#5 -535248205#4 420087185"/>
    </vehicle>
    <vehicle id="truck3" type="truck_truck" depart="12.91" departLane="best" departSpeed="max">
        <route edges="113637345#1 535372288#0 535372281#5 535372281#1 11102716#0 11102716#1 216613128#1 216613128#2 216613128#5 216613128#6 579528238 216613134#19 -436944109 220663183#1 -436942183 220663171#1 220663171#2 -436942179#0 220663181#1 -436942164#1 -436942164#0"/>
    </vehicle>
    <vehicle id="truck4" type="truck_truck" depart="17.21" departLane="best" departSpeed="max">
        <route edges="220663180#0 220663180#1 220663180#3 -220663169 -5199272#15 -5199272#13 -5199272#12 -5199272#11 220663186#0 220663186#1"/>
    </vehicle>
    <vehicle id="truck5" type="truck_truck" depart="21.51" departLane="best">
        <route edges="-437188446#0 437188443#2 437188443#4 -220663168#11 -220663168#9 -220663168#8 -220663168#7 -220663168#6 -220663168#5 -220663168#4 -220663168#3 -220663168#1 -220663168#0 5199272#17 -11102786#4 -11102786#3 -11102786#2 -11102786#1 -11102786#0"/>
    </vehicle>
    <vehicle id="truck6" type="truck_truck" depart="25.81" departLane="best" departSpeed="max">
        <route edges="437188443#0 437188446#0 437188446#1 437188453#0 437188453#1 437188453#2 461597731 437188452#3 437188452#4 437188452#5 11102716#1 216613128#1 216613128#2 216613128#5 216613128#6 579528238 216613134#19 -436944109 220663183#1 -436942183 220663171#1 220663171#2 436942179#1 -436942181#1 -436942181#0"/>
    </vehicle>
    <vehicle id="truck7" type="truck_truck" depart="30.12" departLane="best" departSpeed="max">
        <route edges="-461597712 -220664917#0 -220664931#1 -220664931#0 -220663170#4 -220663170#3 -220663170#2 -220663170#1 -220663170#0 -220663185#2 -220663185#1 -220663185#0 -220664825#0 216613128#6 579528238 216613134#19 216613134#21 216613134#22 216613134#23 535372281#3 535372281#4 535372281#5 5199272#0 5199272#2 5199272#5 5199272#6 -220663174#3 -220663174#2 -220663174#0 -220663168#5 -370558333#4 -370558333#3 -370558333#0"/>
    </vehicle>
    <vehicle id="truck8" type="truck_truck" depart="34.42" departLane="best" departSpeed="max">
        <route edges="1019031945 -370301922#2 -370301922#1 -437188477 -589854938#1 -589854938#0 -5153767#2 -5153767#1 -5153767#0 -370558325#0 535357577#4 535357577#5 535357577#6 -220663168#9 589227266"/>
    </vehicle>
    <vehicle id="truck9" type="truck_truck" depart="38.72" departLane="best">
        <route edges="-437188463#1 -437188463#0 -220663180#2 -461597755 5199272#19 -560546951#8 -560546951#7 -560546951#6 -560546951#5 -560546951#4 -437188478#1 370301922#0 370301922#1 370301922#2 370301922#3 370301922#5"/>
    </vehicle>
    <vehicle id="truck10" type="truck_truck" depart="43.02" departLane="best" departSpeed="max">
        <route edges="220664912#0 220664912#1 220664912#2 220664912#3 -220664886#2 -535256828 -220664825#3 -220664825#2 -220664825#1 -220664825#0 216613128#6 579528238 216613134#19 216613134#21 216613134#22 216613134#23 535372281#3 535372281#4 535372281#5 5199272#0 5199272#2 5199272#5 5199272#6 -220663174#3 -220663174#2 -220663174#0 -220663168#5 -220663168#4 -220663168#3"/>
    </vehicle>
    <vehicle id="truck11" type="truck_truck" depart="47.33" departLane="best">
        <route edges="-220663174#3 -220663174#2 -220663174#0 220663168#6 220663168#7 220663168#8 220663168#9 220663168#11 -437188443#4 -437188443#2 437188446#0"/>
    </vehicle>
    <vehicle id="truck12" type="truck_truck" depart="51.63" departLane="best">
        <route edges="-220663187#2 5199272#16 5199272#17 5199272#19 5199272#20 5199272#21 92439815#0 -134147975#8 -441903769#2"/>
    </vehicle>
    <vehicle id="truck13" type="truck_truck" depart="55.93" departLane="best">
        <route edges="-220663170#8 -220663170#7 -220663170#6 -220663170#5 -220663170#4 -220663170#3 -220663170#2 -220663170#1 -220663170#0 -220663185#2 -220663185#1 -220663185#0 -220664825#0 216613128#6 579528238 216613134#19 216613134#21 216613134#22 216613134#23 535372281#3 535372281#4 535372281#5 5199272#0 5199272#2 5199272#5 5199272#6 5199272#7 5199272#10 5199272#11 5199272#12 5199272#13 5199272#15 220663169 535357579#0 535357579#1 535357579#2 535357579#3"/>
    </vehicle>
    <vehicle id="truck14" type="truck_truck" depart="60.23" departLane="best" departSpeed="max">
        <route edges="220663180#0 -461597755 -5199272#17 220663168#0 220663168#1 220663168#2 220663168#4 220663168#5 220663168#6 220663168#7 220663168#8 220663168#9 220663168#11 -589854942 589854940#0 589854940#1 535357575#0 370301908"/>
    </vehicle>
    <vehicle id="truck15" type="truck_truck" depart="64.54" departLane="best">
        <route edges="-370301922#2 -370301922#1 -437188477 -589854938#1 -589854938#0 -5153767#2 -5153767#1 -5153767#0 -370558325#0 535357577#4 535357577#5 535357577#6 220663168#11 535357576#0 535357576#1 583107021 437188450#1"/>
    </vehicle>
    <vehicle id="truck16" type="truck_truck" depart="68.84" departLane="best" departSpeed="max">
        <route edges="-370301908 535357575#1 535357575#2 535357575#3 -11102727#2 -11102727#1 -11102727#0 5153767#2 589854938#0 589854938#1 5153768#0 5153768#1 437188478#0 437188478#1 -560546951#3"/>
    </vehicle>
    <vehicle id="truck17" type="truck_truck" depart="73.14" departLane="best">
        <route edges="-589854940#0 -589854941 -535357577#4 370558325#0 370558325#1 5153767#1 5153767#2 589854938#0 589854938#1 5153768#0 5153768#1 437188478#0 437188478#1 560546951#4 -461597765 -370558334#5 -370558334#4"/>
    </vehicle>
    <vehicle id="truck18" type="truck_truck" depart="77.44" departLane="best" departSpeed="max">
        <route edges="1218710403 -461597749 -461597748#0 216613134#8 216613134#13 216613134#14 216613134#19 216613134#21 216613134#22 216613134#23 535372281#3 535372281#4 535372281#5 535372281#1 11102716#0 11102716#1 216613128#1 -420087190#2"/>
    </vehicle>
    <vehicle id="truck19" type="truck_truck" depart="81.75" departLane="best">
        <route edges="-437188467#0 -535357575#1 -535357575#0 -589854940#1 437188445 437188447#0 437188447#1 437188452#1 -1218723251 437188452#4 437188452#5 11102716#1 216613128#1 216613128#2 216613128#5 220664825#0 220663185#0 220663185#1 220663185#2 220663170#0 220663170#1 220663170#2 220663170#3 220663170#4 220663170#5 220663170#6 220663170#7 220663170#8 220663170#9 220663170#10 220663170#11 -437188499"/>
    </vehicle>
    <vehicle id="truck20" type="truck_truck" depart="86.05" departLane="best" departSpeed="max">
        <route edges="461597717#0 -461597716 461597713#1 -220664825#2 -220664825#1 -220664825#0 216613128#6 579528238 216613134#19 216613134#21 216613134#22 216613134#23 535372281#3 535372281#4 535372281#5 5199272#0 5199272#2 5199272#5 5199272#6 5199272#7 5199272#10 5199272#11 5199272#12 5199272#13 5199272#15 5199272#16 5199272#17 5199272#19 5199272#20 5199272#21 5199272#22 370558334#0 461597759#0 461597759#1 -461597760"/>
    </vehicle>
    <vehicle id="truck21" type="truck_truck" depart="90.35" departLane="best">
        <route edges="220663183#1 220663183#3 220663189#1 220663189#2 220663189#3 216613134#23 535372281#3 535372281#4 535372281#5 5199272#0 -535357576#3 -535357576#2 -535357576#1 -535357576#0 -220663168#11 -589227265#1 -589227265#0"/>
    </vehicle>
    <vehicle id="truck22" type="truck_truck" depart="94.65" departLane="best">
        <route edges="5199272#20 5199272#21 92439815#0 -134147975#8 -134147975#4 134147973#7"/>
    </vehicle>
    <vehicle id="truck23" type="truck_truck" depart="98.96" departLane="best">
        <route edges="-436944113#1 216613134#22 216613134#23 535372281#3 535372281#4 535372281#5 535372281#1 11102716#0 -437188452#6 -437188452#4 1218723251 -437188452#1 -437188453#4 -437188453#3"/>
    </vehicle>
    <vehicle id="truck24" type="truck_truck" depart="103.26" departLane="best">
        <route edges="1219699098 436942180#1 436942181#0 436942181#1 436942179#2 216613134#13 216613134#14 216613134#19 216613134#21 216613134#22 216613134#23 535372281#3 535372281#4 535372281#5 5199272#0 5199272#2 5199272#5 5199272#6 5199272#7 5199272#10 5199272#11 5199272#12 5199272#13 5199272#15 5199272#16 5199272#17 5199272#19 -560546951#8 -560546951#7 -560546951#6 -560546951#5 -560546951#4 -437188478#1 370301922#0 -437188477"/>
    </vehicle>
    <vehicle id="truck25" type="truck_truck" depart="107.56" departLane="best" departSpeed="max">
        <route edges="-461597757 -370558334#2 -370558334#1 -370558334#0 -5199272#22 -5199272#21 -5199272#20 -5199272#19 -5199272#17 -5199272#16 -5199272#15 -5199272#13 -5199272#12 -5199272#11 -5199272#10 -5199272#9 -5199272#6 -5199272#5 -5199272#4 -5199272#1 535372281#1 11102716#0 11102716#1 216613128#1 216613128#2 216613128#5 216613128#6 579528238 216613134#19 216613134#21 436944113#0 -436944112#0"/>
    </vehicle>
    <vehicle id="truck26" type="truck_truck" depart="111.86" departLane="best">
        <route edges="-92439873#1 -220663186#2 -220663186#1 -220663186#0 -220663177 220663168#5 220663168#6"/>
    </vehicle>
    <vehicle id="truck27" type="truck_truck" depart="116.17" departLane="best">
        <route edges="-220663183#0 216613134#14 216613134#19 216613134#21 216613134#22 216613134#23 535372281#3 535372281#4 535372281#5 5199272#0 5199272#2 5199272#5 5199272#6 -220663174#3 -220663174#2 -220663174#0 -220663168#5 -220663168#4"/>
    </vehicle>
    <vehicle id="truck28" type="truck_truck" depart="120.47" departLane="best">
        <route edges="220663189#2 220663189#3 216613134#23 535372281#3 535372281#4 535372281#5 5199272#0 5199272#2 5199272#5 5199272#6 5199272#7 -535357582#4 -535357582#3 -436944115 -370558328#1 -370558328#0"/>
    </vehicle>
    <vehicle id="truck29" type="truck_truck" depart="124.77" departLane="best">
        <route edges="436942183 220663183#3 220663189#1 220663189#2 220663189#3 216613134#23 535372281#3 535372281#4 535372281#5 535372281#1 11102716#0"/>
    </vehicle>
    <vehicle id="truck30" type="truck_truck" depart="129.07" departLane="best">
        <route edges="-220663168#6 -220663168#5 -220663168#4 -220663168#3 -220663168#1 -220663168#0 5199272#17 5199272#19 -560546951#8 -560546951#7 -560546951#6"/>
    </vehicle>
    <vehicle id="truck31" type="truck_truck" depart="133.38" departLane="best">
        <route edges="220664848#2 220664902#0 220664902#1 -220664825#3 -220664825#2 -220664825#1 -220664825#0 216613128#6 579528238 216613134#19 -436944109 220663183#1"/>
    </vehicle>
    <vehicle id="truck32" type="truck_truck" depart="137.68" departLane="best">
        <route edges="436944115 535357582#3 535357582#4 5199272#10 5199272#11 5199272#12 5199272#13 5199272#15 5199272#16 5199272#17 5199272#19 5199272#20 5199272#21 5199272#22 370558334#0 370558334#1 370558334#2 370558334#4 370558334#5"/>
    </vehicle>
    <vehicle id="truck33" type="truck_truck" depart="141.98" departLane="best">
        <route edges="-220664818#0 -220663170#3 -220663170#2 -220663170#1 -220663170#0 -220663185#2 -220663185#1 -220663185#0 -220664825#0 216613128#6 579528238 216613134#19 216613134#21 216613134#22 216613134#23 535372281#3 535372281#4 535372281#5 5199272#0 -535357576#3 -535357576#2 -535357576#1 -535357576#0 -220663168#11 -589227265#1 1111941525"/>
    </vehicle>
    <vehicle id="truck34" type="truck_truck" depart="146.28" departLane="best">
        <route edges="5199272#6 5199272#7 5199272#10 5199272#11 5199272#12 5199272#13 5199272#15 5199272#16 5199272#17 5199272#19 -560546951#8 -560546951#7 -560546951#6 -560546951#5"/>
    </vehicle>
    <vehicle id="truck35" type="truck_truck" depart="150.59" departLane="best" departSpeed="max">
        <route edges="461597717#0 -461597716 461597713#1 -220664825#2 -220664825#1 -220664825#0 216613128#6 579528238 216613134#19 216613134#21 216613134#22 216613134#23 535372281#3 535372281#4 535372281#5 5199272#0 5199272#2 5199272#5 5199272#6 5199272#7 5199272#10 5199272#11 5199272#12 5199272#13 5199272#15 5199272#16 5199272#17 5199272#19 -560546951#8 -560546951#7 -560546951#6 -560546951#5 -560546951#4 -437188478#1 -437188478#0"/>
    </vehicle>
    <vehicle id="truck36" type="truck_truck" depart="154.89" departLane="best" departSpeed="max">
        <route edges="-583113442 -535357579#3 -535357579#2 -535357579#1 -535357579#0 -220663169 -5199272#15 -5199272#13 -5199272#12 -5199272#11 -5199272#10 -5199272#9 -5199272#6 -5199272#5 -5199272#4 -5199272#1 535372281#1 11102716#0 11102716#1 -535248205#5 -535248205#4 -535248205#3 -535248205#2 -535248205#1 220664824#0 -420087179"/>
    </vehicle>
    <vehicle id="truck37" type="truck_truck" depart="159.19" departLane="best">
        <route edges="-437188460 5199272#12 5199272#13 5199272#15 5199272#16 5199272#17 5199272#19 5199272#20 5199272#21 5199272#22 370558334#0 370558334#1 370558334#2"/>
    </vehicle>
    <vehicle id="truck38" type="truck_truck" depart="163.49" departLane="best">
        <route edges="420087183 -420087182#0 420087181#1 220664886#0 220664886#1 -535256828 -220664825#3 -220664825#2 -220664825#1 -220664825#0 216613128#6 579528238 216613134#19 216613134#21 216613134#22 216613134#23 535372281#3 535372281#4 535372281#5 5199272#0 5199272#2 5199272#5 5199272#6 5199272#7 5199272#10 5199272#11 5199272#12 5199272#13 5199272#15 220663187#1 -220663178#1 220663184#0 220663184#1"/>
    </vehicle>
    <vehicle id="truck39" type="truck_truck" depart="167.80" departLane="best" departSpeed="max">
        <route edges="-1063830991 11102786#1 11102786#2 11102786#3 11102786#4 -5199272#17 -5199272#16 -5199272#15 -5199272#13 -5199272#12 -5199272#11 -5199272#10 -5199272#9 -5199272#6 -5199272#5 -5199272#4 -5199272#1"/>
    </vehicle>
    <vehicle id="truck40" type="truck_truck" depart="172.10" departLane="best">
        <route edges="-11102789#2 -11102789#1 -11102789#0 11102786#2 11102786#3 11102786#4 461597755 220663180#1 220663180#3 535357579#0 535357579#1 535357579#2 535357579#3 535357579#4"/>
    </vehicle>
    <vehicle id="truck41" type="truck_truck" depart="176.40" departLane="best" departSpeed="max">
        <route edges="-437188464#1 -437188464#0 -437188463#0 220663180#3 -220663169 -5199272#15 -5199272#13 -5199272#12 -5199272#11 -5199272#10 -5199272#9 -5199272#6 -5199272#5 -5199272#4 -5199272#1 535372281#1 11102716#0 11102716#1 216613128#1 216613128#2 216613128#5 220664825#0 220663185#0 220663185#1 220663185#2 220663170#0 220663170#1 220663170#2 220663170#3 220663170#4 220663170#5 220663170#6"/>
    </vehicle>
    <vehicle id="truck42" type="truck_truck" depart="180.70" departLane="best">
        <route edges="461597719 -461597720#0 -220663185#0 -220664825#0 216613128#6 579528238 216613134#19 216613134#21 216613134#22 216613134#23 535372281#3 535372280#0 535372280#1 535372280#2"/>
    </vehicle>
    <vehicle id="truck43" type="truck_truck" depart="185.01" departLane="best">
        <route edges="-220663181#3 436942180#0 436942180#1 436942181#0 436942181#1 436942179#2 216613134#13 216613134#14 216613134#19 216613134#21"/>
    </vehicle>
    <vehicle id="truck44" type="truck_truck" depart="189.31" departLane="best">
        <route edges="-220663170#11 -220663170#10 -220663170#9 -220663170#8 -220663170#7 -220663170#6 -220663170#5 -220663170#4 -220663170#3 -220663170#2 -220663170#1 -220663170#0 -220663185#2 -220663185#1 -220663185#0 -220664825#0 216613128#6 579528238 216613134#19 216613134#21 216613134#22 216613134#23 535372281#3 535372281#4 535372281#5 5199272#0 5199272#2 5199272#5 5199272#6 5199272#7 -535357582#4 -535357582#3 -535357582#2 -535357582#1 370558329#0 437188466"/>
    </vehicle>
    <vehicle id="truck45" type="truck_truck" depart="193.61" departLane="best">
        <route edges="-535357577#5 589854941 589854942 535357576#0 535357576#1 535357576#2 535357576#3 -5199272#1 535372281#1 11102716#0 11102716#1 216613128#1 216613128#2 216613128#5 220664825#0 220663185#0 220663185#1 220663185#2 220663185#3 220663188#0"/>
    </vehicle>
    <vehicle id="truck46" type="truck_truck" depart="197.91" departLane="best">
        <route edges="-436944113#1 216613134#22 216613134#23 535372281#3 535372281#4 535372281#5 5199272#0 5199272#2 5199272#5 5199272#6 5199272#7 5199272#10 5199272#11 5199272#12 5199272#13 5199272#15 5199272#16 5199272#17 5199272#19 5199272#20 5199272#21 5199272#22 370558334#0 370558334#1 370558334#2 370558334#4 461597764#0 461597764#1"/>
    </vehicle>
    <vehicle id="truck47" type="truck_truck" depart="202.22" departLane="best" departSpeed="max">
        <route edges="-461597764#1 -461597764#0 -370558334#4 -370558334#2 -370558334#1 -370558334#0 -5199272#22 -5199272#21 -5199272#20 -5199272#19 -5199272#17 -5199272#16 -5199272#15 -5199272#13 -5199272#12 -5199272#11 -5199272#10 -5199272#9 -5199272#6 -5199272#5 -5199272#4 -5199272#1 535372281#1 11102716#0 11102716#1 216613128#1 216613128#2 216613128#5 216613128#6 579528238 216613134#19 -436944109 220663183#1 -436942183 220663171#1 220663171#2 436942179#1 -436942181#1"/>
    </vehicle>
    <vehicle id="truck48" type="truck_truck" depart="206.52" departLane="best">
        <route edges="1034488416 220663187#5 436944116 -220663186#0 -5199272#10 -5199272#9 -5199272#6 -5199272#5 437188450#0 437188450#1"/>
    </vehicle>
    <vehicle id="truck49" type="truck_truck" depart="210.82" departLane="best">
        <route edges="-5153767#1 -5153767#0 -370558325#0 535357577#4 535357577#5 535357577#6 220663168#11 535357576#0 535357576#1 535357576#2 535357576#3 -5199272#1 535372281#1 11102716#0 11102716#1 216613128#1 216613128#2 216613128#5 220664825#0 220663185#0 220663185#1 220663185#2 220663170#0 220663170#1 220663170#2 220663170#3"/>
    </vehicle>
    <vehicle id="truck50" type="truck_truck" depart="215.12" departLane="best">
        <route edges="-220664825#1 -220664825#0 216613128#6 579528238 216613134#19 216613134#21 216613134#22 216613134#23 535372281#3 535372281#4 535372281#5 5199272#0 5199272#2 5199272#5 5199272#6 5199272#7 -535357582#4 -535357582#3 -436944115"/>
    </vehicle>
    <vehicle id="truck51" type="truck_truck" depart="219.43" departLane="best" departSpeed="max">
        <route edges="-420087185 535248205#4 535248205#5 216613128#1 216613128#2 216613128#5 216613128#6 579528238 216613134#19 216613134#21 436944113#0 -436944112#0"/>
    </vehicle>
    <vehicle id="truck52" type="truck_truck" depart="223.73" departLane="best">
        <route edges="-220663170#3 -220663170#2 -220663170#1 -220663170#0 -220663185#2 -220663185#1 -220663185#0 -220664825#0 216613128#6 579528238 216613134#19 216613134#21 216613134#22 216613134#23 535372281#3 535372281#4 535372281#5 5199272#0 5199272#2 5199272#5 5199272#6 5199272#7 -535357582#4 -535357582#3 -535357582#2 -535357582#1 370558329#0 370558329#1"/>
    </vehicle>
    <vehicle id="truck53" type="truck_truck" depart="228.03" departLane="best">
        <route edges="535357577#0 535357577#1 535357577#2 535357577#3 535357577#4 535357577#5 535357577#6 220663168#11 535357576#0 535357576#1 535357576#2 535357576#3 -5199272#1 535372281#1 11102716#0 11102716#1 216613128#1 216613128#2 216613128#5 220664825#0 220664825#1 220664825#2 220664825#3 -220664902#1 -220664902#0 -220664848#3 -220664848#1"/>
    </vehicle>
    <vehicle id="truck54" type="truck_truck" depart="232.33" departLane="best">
        <route edges="-535357577#2 -437188467#1 370301927 589854942 535357576#0 535357576#1 535357576#2 535357576#3 -5199272#1 535372281#1 11102716#0 11102716#1 216613128#1 216613128#2 216613128#5 220664825#0 220664825#1 220664825#2 220664825#3 -220664902#1 -220664902#0 -220664848#3 -220664848#1 461597710"/>
    </vehicle>
    <vehicle id="truck55" type="truck_truck" depart="236.64" departLane="best">
        <route edges="437188443#2 437188447#0 437188447#1 437188452#1 -1218723251 437188452#4 437188452#5 11102716#1 216613128#1 216613128#2 -420087187#3 -420087187#2"/>
    </vehicle>
    <vehicle id="truck56" type="truck_truck" depart="240.94" departLane="best">
        <route edges="-220663185#3 -220663185#2 -220663185#1 -220663185#0 -220664825#0 216613128#6 579528238 216613134#19 216613134#21 216613134#22 216613134#23 535372281#3 535372281#4 535372281#5 5199272#0 5199272#2 5199272#5 5199272#6 5199272#7 5199272#10 5199272#11 5199272#12 5199272#13 5199272#15 5199272#16 5199272#17 -11102786#4 -11102786#3 -11102786#2 11102789#0"/>
    </vehicle>
    <vehicle id="truck57" type="truck_truck" depart="245.24" departLane="best">
        <route edges="-370558329#0 535357582#1 535357582#2 535357582#3 535357582#4 -5199272#9 -5199272#6 -5199272#5 -5199272#4 -5199272#1 535372281#1 11102716#0 11102716#1 -535248205#5 -535248205#4 420087185"/>
    </vehicle>
    <vehicle id="truck58" type="truck_truck" depart="249.54" departLane="best" departSpeed="max">
        <route edges="589227265#0 589227265#1 -220663168#9 -220663168#8 437188448#0 437188448#2 437188448#3 -5199272#5 -5199272#4 -5199272#1 535372281#1 11102716#0 11102716#1 216613128#1 216613128#2 216613128#5 216613128#6 579528238 216613134#19 216613134#21 216613134#22 -220663189#3 -220663189#2"/>
    </vehicle>
    <vehicle id="truck59" type="truck_truck" depart="253.85" departLane="best" departSpeed="max">
        <route edges="-461597758 -370558334#1 -370558334#0 -5199272#22 -5199272#21 -5199272#20 -5199272#19 -5199272#17 -5199272#16 -5199272#15 -5199272#13 -5199272#12 -5199272#11 -5199272#10 -5199272#9 -5199272#6 -5199272#5 -5199272#4 -5199272#1 535372281#1 11102716#0 11102716#1 -535248205#5 -535248205#4 -535248205#3 -535248205#2 -535248205#1 -535248205#0"/>
    </vehicle>
    <vehicle id="truck60" type="truck_truck" depart="258.15" departLane="best" departSpeed="max">
        <route edges="461597709 220664848#2 220664902#0 220664902#1 -220664825#3 -220664825#2 -220664825#1 -220664825#0 216613128#6 579528238 216613134#19 216613134#21 216613134#22 216613134#23 535372281#3 535372281#4 535372281#5 5199272#0 5199272#2 5199272#5 5199272#6 -220663174#3 -437188459"/>
    </vehicle>
    <vehicle id="truck61" type="truck_truck" depart="262.45" departLane="best" departSpeed="max">
        <route edges="-436942180#3 436942181#0 436942181#1 436942179#2 216613134#13 216613134#14 216613134#19 216613134#21 216613134#22 216613134#23 535372281#3 535372281#4 535372281#5 5199272#0 -535357576#3 -535357576#2 -535357576#1 -535357576#0 -220663168#11 -535357577#6 -535357577#5 -535357577#4"/>
    </vehicle>
    <vehicle id="truck62" type="truck_truck" depart="266.75" departLane="best">
        <route edges="5199272#10 5199272#11 5199272#12 5199272#13 5199272#15 5199272#16 5199272#17 5199272#19 5199272#20 5199272#21 5199272#22 370558334#0 461597759#0 461597761"/>
    </vehicle>
    <vehicle id="truck63" type="truck_truck" depart="271.06" departLane="best">
        <route edges="11102789#2 -5153768#2 -5153768#1 -5153768#0 -589854938#1 -589854938#0 -5153767#2 -5153767#1 -5153767#0 -370558325#0 535357577#4 535357577#5 535357577#6 -220663168#9"/>
    </vehicle>
    <vehicle id="truck64" type="truck_truck" depart="275.36" departLane="best">
        <route edges="92451064#3 439472141 -535357579#4 -535357579#3 -535357579#2 -535357579#1 -535357579#0 -220663169 -5199272#15 -5199272#13 -5199272#12 -5199272#11 -5199272#10 -535357582#4 -535357582#3 -436944115 370558328#2 461597752"/>
    </vehicle>
    <vehicle id="truck65" type="truck_truck" depart="279.66" departLane="best">
        <route edges="560546951#5 560546951#6 560546951#7 560546951#8 -5199272#19 461597755 220663180#1 220663180#3 535357579#0 535357579#1"/>
    </vehicle>
    <vehicle id="truck66" type="truck_truck" depart="283.96" departLane="best">
        <route edges="535357582#4 -5199272#9 -5199272#6 -5199272#5 -5199272#4 -5199272#1 535372281#1 11102716#0 11102716#1 216613128#1 216613128#2 216613128#5 216613128#6 579528238 216613134#19 -436944109 220663183#1 -436942183 220663171#1 220663171#2 436942179#1 -436942181#1 -436942182#0"/>
    </vehicle>
    <vehicle id="truck67" type="truck_truck" depart="288.27" departLane="best" departSpeed="max">
        <route edges="-461597757 -370558334#2 -370558334#1 -370558334#0 -5199272#22 -5199272#21 -5199272#20 -5199272#19 -5199272#17 -5199272#16 -5199272#15 -5199272#13 -5199272#12 -5199272#11 -5199272#10 -5199272#9 -5199272#6 -5199272#5 -5199272#4 -5199272#1 535372281#1 11102716#0 11102716#1 216613128#1 216613128#2 216613128#5 220664825#0 220663185#0 220663185#1 220663185#2 220663170#0 220663170#1 220663170#2 220663170#3 220663170#4 220663170#5 220663170#6 220663170#7"/>
    </vehicle>
    <vehicle id="truck68" type="truck_truck" depart="292.57" departLane="best">
        <route edges="-436944113#1 216613134#22 216613134#23 535372281#3 535372281#4 535372281#5 535372281#1 11102716#0 11102716#1 216613128#1 216613128#2 216613128#5 220664825#0 220664825#1 220664825#2 220664825#3 -220664902#1 -220664902#0 -220664848#3 -220664848#1 461597710"/>
    </vehicle>
    <vehicle id="truck69" type="truck_truck" depart="296.87" departLane="best">
        <route edges="535248205#1 535248205#2 535248205#3 535248205#4 535248205#5 216613128#1"/>
    </vehicle>
    <vehicle id="truck70" type="truck_truck" depart="301.17" departLane="best">
        <route edges="113637345#1 535372288#0 535372281#5 535372281#1 11102716#0 -437188452#6 -437188452#4 -437188452#3 -461597731 -437188453#2 -437188453#1 -437188453#0 -437188446#1 -437188446#0 437188444"/>
    </vehicle>
    <vehicle id="truck71" type="truck_truck" depart="305.48" departLane="best">
        <route edges="560546951#4 560546951#5 560546951#6 560546951#7 560546951#8 -5199272#19 -5199272#17 -5199272#16 -5199272#15 -5199272#13 -5199272#12 -5199272#11 -5199272#10 -5199272#9 -5199272#6 -5199272#5 -5199272#4 -5199272#1 535372281#1 11102716#0 11102716#1 216613128#1 216613128#2 216613128#5 220664825#0 220663185#0 220663185#1 220663185#2 220663170#0 220663170#1 220663170#2 220663170#3 220663170#4 220663170#5 220664954#1 220664954#2 220664954#3 220664894#0"/>
    </vehicle>
    <vehicle id="truck72" type="truck_truck" depart="309.78" departLane="best">
        <route edges="11102727#0 535357577#0 535357577#1 535357577#2 535357577#3 370558325#0 -589170297 370558333#2 370558333#4 -220663168#4 -220663168#3 -220663168#1 437188462"/>
    </vehicle>
    <vehicle id="truck73" type="truck_truck" depart="314.08" departLane="best">
        <route edges="-589053070 -11102727#1 -11102727#0 5153767#2 589854938#0 589854938#1 5153768#0 5153768#1 437188478#0 437188478#1 560546951#4 -461597765 -370558334#5 -370558334#4 -370558334#2 461597758"/>
    </vehicle>
    <vehicle id="truck74" type="truck_truck" depart="318.38" departLane="best" departSpeed="max">
        <route edges="-220664954#4 -220664954#3 -220664954#2 -220664954#1 -220663170#5 -220663170#4 -220663170#3 -220663170#2 -220663170#1 -220663170#0 -220663185#2 -220663185#1 -220663185#0 -220664825#0 216613128#6 579528238 216613134#19 216613134#21 216613134#22 216613134#23 535372281#3 535372281#4 535372281#5 5199272#0 5199272#2 5199272#5 5199272#6 5199272#7 5199272#10 5199272#11 5199272#12 5199272#13 5199272#15 220663169 535357579#0 535357579#1 535357579#2 535357579#3 583113442"/>
    </vehicle>
    <vehicle id="truck75" type="truck_truck" depart="322.69" departLane="best">