<?xml version="1.0" encoding="UTF-8"?>

<!-- generated on 2025-06-04 02:19:35.055291 by randomTrips.py v1_23_1+0000-676720d13f6
<configuration>
    <net-file value="osm.net.xml.gz"/>
    <output-trip-file value="osm.passenger.trips.xml"/>
    <route-file value="osm.passenger.rou.xml"/>
    <prefix value="veh"/>
    <trip-attributes value="departLane=&quot;best&quot;"/>
    <fringe-start-attributes value="departSpeed=&quot;max&quot;"/>
    <vehicle-class value="passenger"/>
    <lanes value="True"/>
    <fringe-factor value="5"/>
    <allow-fringe.min-length value="1000.0"/>
    <edge-permission value="passenger"/>
    <via-edge-types value="highway.motorway,highway.motorway_link,highway.trunk_link,highway.primary_link,highway.secondary_link,highway.tertiary_link"/>
    <min-distance value="300.0"/>
    <min-distance.fringe value="10.0"/>
    <remove-loops value="True"/>
    <validate value="True"/>
    <insertion-density value="12.0"/>
</configuration>
-->

<!-- generated on 2025-06-04 02:19:34 by Eclipse SUMO duarouter Version 1.23.1
<duarouterConfiguration xmlns:xsi="http://www.w3.org/2001/XMLSchema-instance" xsi:noNamespaceSchemaLocation="http://sumo.dlr.de/xsd/duarouterConfiguration.xsd">

    <input>
        <net-file value="osm.net.xml.gz"/>
        <route-files value="osm.passenger.trips.xml"/>
    </input>

    <output>
        <output-file value="osm.passenger.rou.xml"/>
        <alternatives-output value="NUL"/>
    </output>

    <processing>
        <remove-loops value="true"/>
    </processing>

    <time>
        <begin value="0.0"/>
        <end value="3600.0"/>
    </time>

    <report>
        <no-warnings value="true"/>
        <ignore-errors value="true"/>
        <no-step-log value="true"/>
    </report>

</duarouterConfiguration>
-->

<routes xmlns:xsi="http://www.w3.org/2001/XMLSchema-instance" xsi:noNamespaceSchemaLocation="http://sumo.dlr.de/xsd/routes_file.xsd">
    <vType id="veh_passenger" vClass="passenger"/>
    <vehicle id="veh0" type="veh_passenger" depart="0.00" departLane="best">
        <route edges="-220663170#7 -220663170#6 -220663170#5 -220663170#4 -220663170#3 -220663170#2 -220663170#1 -220663170#0 -220663185#2 -220663185#1 -220663185#0 -220664825#0 216613128#6 579528238 216613134#19 216613134#21 216613134#22 216613134#23 535372281#3 535372281#4 535372281#5 5199272#0 5199272#2 5199272#5 5199272#6 -220663174#3 -220663174#2 -220663174#0 -220663168#5 -370558333#4 -370558333#3 -1264385078"/>
    </vehicle>
    <vehicle id="veh1" type="veh_passenger" depart="2.87" departLane="best">
        <route edges="-437188448#3 437188459 220663174#3 5199272#7 5199272#10 220663186#0 -436944116"/>
    </vehicle>
    <vehicle id="veh2" type="veh_passenger" depart="5.74" departLane="best" departSpeed="max">
        <route edges="370558333#0 370558333#2 370558333#4 220663168#5 220663174#0 220663174#1 220663174#3 -5199272#6 -5199272#5 -5199272#4 -5199272#1 535372281#1 11102716#0 11102716#1 -535248205#5 -535248205#4 420087185"/>
    </vehicle>
    <vehicle id="veh3" type="veh_passenger" depart="8.60" departLane="best">
        <route edges="-461597748#0 216613134#8 216613134#13 216613134#14 216613134#19 216613134#21 216613134#22 216613134#23 535372281#3 535372281#4 535372281#5 5199272#0 5199272#2 5199272#5 5199272#6 5199272#7 -535357582#4 461597753 -220663186#1"/>
    </vehicle>
    <vehicle id="veh4" type="veh_passenger" depart="11.47" departLane="best">
        <route edges="-420087181#0 220664912#3 -220664886#2 -535256828 -220664825#3 -220664825#2 -220664825#1 -220664825#0 216613128#6 579528238 216613134#19 216613134#21 216613134#22 216613134#23 535372281#3 535372280#0 535372280#1 220662790#0"/>
    </vehicle>
    <vehicle id="veh5" type="veh_passenger" depart="14.34" departLane="best" departSpeed="max">
        <route edges="113637345#1 535372288#0 535372281#5 535372281#1 11102716#0 11102716#1 216613128#1 216613128#2 216613128#5 216613128#6 579528238 216613134#19 -436944109 220663183#1 -436942183 220663171#1 220663171#2 -436942179#0 220663181#1 -436942164#1 -436942164#0"/>
    </vehicle>
    <vehicle id="veh6" type="veh_passenger" depart="17.21" departLane="best">
        <route edges="220663178#0 220663178#1 -220663187#2 -5199272#15 -5199272#13 -5199272#12 -5199272#11 -5199272#10 -5199272#9 -5199272#6 -5199272#5 -5199272#4 -5199272#1 535372281#1 11102716#0 11102716#1 216613128#1 216613128#2 216613128#5 220664825#0 220663185#0 220663185#1"/>
    </vehicle>
    <vehicle id="veh7" type="veh_passenger" depart="20.08" departLane="best">
        <route edges="-420087182#0 420087181#1 220664886#0 220664886#1 -535256828 535256827 220664896#2"/>
    </vehicle>
    <vehicle id="veh8" type="veh_passenger" depart="22.95" departLane="best">
        <route edges="437188443#2 437188443#4 -220663168#11 -220663168#9 -220663168#8 -220663168#7 -220663168#6 -220663168#5 -220663168#4 -220663168#3 -220663168#1 -220663168#0 5199272#17 -11102786#4 -11102786#3 -11102786#2 -11102786#1 -11102786#0"/>
    </vehicle>
    <vehicle id="veh9" type="veh_passenger" depart="25.81" departLane="best" departSpeed="max">
        <route edges="437188443#0 437188446#0 437188446#1 437188453#0 437188453#1 437188453#2 461597731 437188452#3 437188452#4 437188452#5 11102716#1 216613128#1 216613128#2 216613128#5 216613128#6 579528238 216613134#19 -436944109 220663183#1 -436942183 220663171#1 220663171#2 436942179#1 -436942181#1 -436942181#0 436942180#3"/>
    </vehicle>
    <vehicle id="veh10" type="veh_passenger" depart="28.68" departLane="best" departSpeed="max">
        <route edges="-461597714 461597713#1 -220664825#2 -220664825#1 -220664825#0 216613128#6 579528238 216613134#19 216613134#21 216613134#22 216613134#23 535372281#3 535372281#4 535372281#5 5199272#0 5199272#2 5199272#5 5199272#6 -220663174#3 -220663174#2 -220663174#0 -220663168#5 -370558333#4 -370558333#3 -370558333#0"/>
    </vehicle>
    <vehicle id="veh11" type="veh_passenger" depart="31.55" departLane="best">
        <route edges="-220663184#1 -220663184#0 220663178#1 -220663187#2 -5199272#15 -5199272#13 -5199272#12 -5199272#11 -5199272#10 -5199272#9 -5199272#6 -5199272#5 -5199272#4 -5199272#1 535372281#1 11102716#0 11102716#1 216613128#1 216613128#2 216613128#5 216613128#6 579528238 216613134#19 216613134#21 216613134#22 -220663189#3 -220663189#2 -220663189#1"/>
    </vehicle>
    <vehicle id="veh12" type="veh_passenger" depart="34.42" departLane="best" departSpeed="max">
        <route edges="437188499 -220663170#11 -220663170#10 -220663170#9 -220663170#8 -220663170#7 -220663170#6 220664954#1"/>
    </vehicle>
    <vehicle id="veh13" type="veh_passenger" depart="37.29" departLane="best" departSpeed="max">
        <route edges="437188443#0 437188443#2 437188443#4 -220663168#11 -220663168#9 -220663168#8 437188448#0 437188449"/>
    </vehicle>
    <vehicle id="veh14" type="veh_passenger" depart="40.16" departLane="best">
        <route edges="11102727#2 -535357575#3 -535357575#2 437188467#0 437188467#1 535357577#2 535357577#3 535357577#4 535357577#5 535357577#6 -220663168#9 589227266"/>
    </vehicle>
    <vehicle id="veh15" type="veh_passenger" depart="43.02" departLane="best" departSpeed="max">
        <route edges="-461597751 -220663171#1 436942183 220663183#3 220663189#1 220663189#2 220663189#3 216613134#23 535372281#3 535372281#4 535372281#5 5199272#0 5199272#2 5199272#5 5199272#6 5199272#7 5199272#10 5199272#11 5199272#12 5199272#13 5199272#15 220663187#1 220663187#3 220663187#4"/>
    </vehicle>
    <vehicle id="veh16" type="veh_passenger" depart="45.89" departLane="best">
        <route edges="437188461 220663168#2 220663168#4 -370558333#4 -370558333#3 589170297 -370558325#0 -535357577#3 -535357577#2 -535357577#1 -535357577#0 11102727#1 589053070 370301920#1 370301920#2"/>
    </vehicle>
    <vehicle id="veh17" type="veh_passenger" depart="48.76" departLane="best" departSpeed="max">
        <route edges="441903769#0 134147975#5 -92439815#1 -5199272#21 -5199272#20 -5199272#19 -5199272#17 -5199272#16 -5199272#15 -5199272#13 -5199272#12 -5199272#11 -5199272#10 -5199272#9 -5199272#6 -5199272#5 -5199272#4 -5199272#1 535372281#1 11102716#0 11102716#1 216613128#1 216613128#2 216613128#5 220664825#0 220663185#0 220663185#1 220663185#2 220663170#0 220663170#1 220663170#2 220663170#3 220663170#4 220663170#5 220663170#6 220663170#7 220663170#8 220664865#0"/>
    </vehicle>
    <vehicle id="veh18" type="veh_passenger" depart="51.63" departLane="best">
        <route edges="220664902#1 -220664825#3 -220664825#2 -220664825#1 -220664825#0 216613128#6 579528238 216613134#19 216613134#21 216613134#22 216613134#23 535372281#3 535372281#4 535372281#5 5199272#0 5199272#2 5199272#5 5199272#6 -220663174#3 -220663174#2 -220663174#0 -220663168#5 -220663168#4 -220663168#3"/>
    </vehicle>
    <vehicle id="veh19" type="veh_passenger" depart="54.50" departLane="best" departSpeed="max">
        <route edges="-420087186 535248205#5 216613128#1 216613128#2 216613128#5 220664825#0 220664825#1 220664825#2 -461597713#1 -461597713#0 -220664945#1 -461597715"/>
    </vehicle>
    <vehicle id="veh20" type="veh_passenger" depart="57.37" departLane="best">
        <route edges="220663178#0 220663178#1 -220663187#2 -5199272#15 -5199272#13 -5199272#12 -5199272#11 -5199272#10 -5199272#9 -5199272#6 -5199272#5 437188450#0 -583107021 -535357576#1 -589227267 -437188447#0"/>
    </vehicle>
    <vehicle id="veh21" type="veh_passenger" depart="60.23" departLane="best">
        <route edges="-220663187#4 -220663187#3 -220663187#2 5199272#16 5199272#17 5199272#19 5199272#20 5199272#21 92439815#0 -134147975#8 -441903769#2"/>
    </vehicle>
    <vehicle id="veh22" type="veh_passenger" depart="63.10" departLane="best">
        <route edges="-220663170#2 -220663170#1 -220663170#0 -220663185#2 -220663185#1 -220663185#0 -220664825#0 216613128#6 579528238 216613134#19 216613134#21 216613134#22 216613134#23 535372281#3 535372281#4 535372281#5 5199272#0 5199272#2 5199272#5 5199272#6 5199272#7 -535357582#4 -535357582#3 -535357582#2 -535357582#1 -535357582#0"/>
    </vehicle>
    <vehicle id="veh23" type="veh_passenger" depart="65.97" departLane="best">
        <route edges="220663174#3 -5199272#6 -5199272#5 -5199272#4 -5199272#1 535372281#1 11102716#0 11102716#1 216613128#1 216613128#2 216613128#5 220664825#0 220663185#0 220663185#1 220663185#2 220663170#0 220663170#1 220663170#2 220663170#3 220663170#4 220663170#5 220664954#1 220664954#2 220664954#3 220664954#4"/>
    </vehicle>
    <vehicle id="veh24" type="veh_passenger" depart="68.84" departLane="best" departSpeed="max">
        <route edges="-370301922#5 -370301922#4 -370301922#2 -370301922#1 -437188477 -589854938#1 -589854938#0 -5153767#2 -5153767#1 -5153767#0 -370558325#0 535357577#4 535357577#5 535357577#6 -220663168#9 -220663168#8 437188448#0 437188448#2 437188448#3"/>
    </vehicle>
    <vehicle id="veh25" type="veh_passenger" depart="71.71" departLane="best">
        <route edges="-370301920#1 -370301920#0 589854938#0 589854938#1 5153768#0 5153768#1 5153768#2 11102792 560546951#6 560546951#7 560546951#8"/>
    </vehicle>
    <vehicle id="veh26" type="veh_passenger" depart="74.58" departLane="best">
        <route edges="-589854940#0 -589854941 -535357577#4 370558325#0 -589170297 370558333#2 370558333#4"/>
    </vehicle>
    <vehicle id="veh27" type="veh_passenger" depart="77.44" departLane="best" departSpeed="max">
        <route edges="1264385078 370558333#2 370558333#4 220663168#5 220663174#0 220663174#1 220663174#3 -5199272#6 -5199272#5 -5199272#4 -5199272#1 535372281#1 11102716#0 11102716#1 216613128#1 -420087190#2 -461597721 420087187#0 420087187#1"/>
    </vehicle>
    <vehicle id="veh28" type="veh_passenger" depart="80.31" departLane="best">
        <route edges="-437188477 -589854938#1 -589854938#0 -5153767#2 -5153767#1 -5153767#0 -370558325#0 535357577#4 535357577#5 535357577#6 220663168#11 535357576#0 535357576#1 535357576#2 535357576#3 -5199272#1 535372281#1 11102716#0 11102716#1 216613128#1 216613128#2 216613128#5 220664825#0 220663185#0 220663185#1 220663185#2 220663170#0 220663170#1 220663170#2 220663170#3 220663170#4 220663170#5 220663170#6 220663170#7 220663170#8 220663170#9 220663170#10 220663170#11 -437188499"/>
    </vehicle>
    <vehicle id="veh29" type="veh_passenger" depart="83.18" departLane="best" departSpeed="max">
        <route edges="461597717#0 -461597716 461597713#1 -220664825#2 -220664825#1 -220664825#0 216613128#6 579528238 216613134#19 216613134#21 216613134#22 216613134#23 535372281#3 535372281#4 535372281#5 5199272#0 5199272#2 5199272#5 5199272#6 5199272#7 5199272#10 5199272#11 5199272#12 5199272#13 5199272#15 5199272#16 5199272#17 5199272#19 5199272#20 5199272#21 5199272#22 370558334#0 370558334#1 370558334#2 461597762#0 461597763 -461597764#0"/>
    </vehicle>
    <vehicle id="veh30" type="veh_passenger" depart="86.05" departLane="best">
        <route edges="220663180#3 -220663169 5199272#16 5199272#17 5199272#19 -560546951#8 -560546951#7 -560546951#6 -11102792 -5153768#2 -5153768#1 -5153768#0 -589854938#1 -589854938#0"/>
    </vehicle>
    <vehicle id="veh31" type="veh_passenger" depart="88.92" departLane="best">
        <route edges="5199272#2 5199272#5 5199272#6 5199272#7 5199272#10 5199272#11 5199272#12 5199272#13 5199272#15 5199272#16 5199272#17 5199272#19 5199272#20 5199272#21 5199272#22 5199272#23 134147980#0 134147980#1 134147980#2 134147980#3 134147974#0"/>
    </vehicle>
    <vehicle id="veh32" type="veh_passenger" depart="91.79" departLane="best">
        <route edges="-437188442#0 535357576#3 5199272#2 5199272#5 5199272#6 -220663174#3 -220663174#2 -220663174#0 -220663168#5 -220663168#4 -437188460"/>
    </vehicle>
    <vehicle id="veh33" type="veh_passenger" depart="94.65" departLane="best" departSpeed="max">
        <route edges="1314314747#0 1322057554 784712679#1 134147968#0 134147968#1 -1354009673 134147974#0 134147974#1 134147974#2 134147974#3 -5199272#24 -5199272#22 -5199272#21 -5199272#20 -560546951#8 -560546951#7 -560546951#6 -11102792 -11102789#2 -11102789#1 -437188479"/>
    </vehicle>
    <vehicle id="veh34" type="veh_passenger" depart="97.52" departLane="best">
        <route edges="134147974#3 -5199272#24 -5199272#22 -5199272#21 -5199272#20 -5199272#19 -5199272#17"/>
    </vehicle>
    <vehicle id="veh35" type="veh_passenger" depart="100.39" departLane="best" departSpeed="max">
        <route edges="-461597758 -370558334#1 -370558334#0 -5199272#22 -5199272#21 -5199272#20 -5199272#19 -5199272#17 -5199272#16 -5199272#15 -5199272#13 -5199272#12 -5199272#11 -5199272#10 -5199272#9 -5199272#6 -5199272#5 -5199272#4 -5199272#1 535372281#1 11102716#0 11102716#1 216613128#1 216613128#2 216613128#5 216613128#6 579528238 216613134#19 216613134#21 436944113#0 -436944112#0"/>
    </vehicle>
    <vehicle id="veh36" type="veh_passenger" depart="103.26" departLane="best">
        <route edges="92439873#1 92439873#2 535357580#0 220663178#0 220663178#1 -220663187#2 5199272#16 220663168#0"/>
    </vehicle>
    <vehicle id="veh37" type="veh_passenger" depart="106.13" departLane="best">
        <route edges="220663183#3 220663189#1 220663189#2 220663189#3 216613134#23 535372281#3 535372281#4 535372281#5 5199272#0 5199272#2 5199272#5 5199272#6 -220663174#3 -220663174#2 -220663174#0 -220663168#5"/>
    </vehicle>
    <vehicle id="veh38" type="veh_passenger" depart="109.00" departLane="best">
        <route edges="-220664818#0 -220663170#3 -220663170#2 -220663170#1 -220663170#0 -220663185#2 -220663185#1 -220663185#0 -220664825#0 216613128#6 579528238 216613134#19 216613134#21 216613134#22 216613134#23 535372281#3 535372281#4 535372281#5 5199272#0 -535357576#3 -535357576#2 -535357576#1 -535357576#0 -220663168#11 -535357577#6 -535357577#5 -535357577#4 370558325#0 370558325#1"/>
    </vehicle>
    <vehicle id="veh39" type="veh_passenger" depart="111.86" departLane="best" departSpeed="max">
        <route edges="436942182#0 436942181#1 436942179#2 216613134#13 216613134#14 216613134#19 216613134#21 216613134#22 216613134#23 535372281#3 535372281#4 535372281#5 5199272#0 5199272#2 5199272#5 5199272#6 5199272#7 5199272#10 5199272#11 5199272#12 5199272#13 5199272#15 5199272#16 5199272#17 5199272#19 5199272#20 5199272#21 5199272#22 5199272#23 134147980#0 134147980#1 134147980#2 134147980#3 11102771"/>
    </vehicle>
    <vehicle id="veh40" type="veh_passenger" depart="114.73" departLane="best">
        <route edges="-220663168#7 -220663168#6 220663174#0 220663174#1 220663174#3 -5199272#6 -5199272#5 -5199272#4 -5199272#1 535372281#1 11102716#0 11102716#1 216613128#1 216613128#2 216613128#5 220664825#0 220663185#0 220663185#1 220663185#2 220663185#3 220663188#0 220663188#1 -579248751"/>
    </vehicle>
    <vehicle id="veh41" type="veh_passenger" depart="117.60" departLane="best">
        <route edges="-92439815#1 -5199272#21 -5199272#20 -5199272#19 -5199272#17 220663168#0 220663168#1 220663168#2 220663168#4 220663168#5 220663174#0 220663174#1"/>
    </vehicle>
    <vehicle id="veh42" type="veh_passenger" depart="120.47" departLane="best">
        <route edges="-11102727#0 -5153767#1 -5153767#0 -370558325#0 535357577#4 589854941 589854940#0 437188445 -437188443#2 437188444"/>
    </vehicle>
    <vehicle id="veh43" type="veh_passenger" depart="123.34" departLane="best">
        <route edges="-220664825#2 -220664825#1 -220664825#0 216613128#6 579528238 216613134#19 -436944109 220663183#1 -436942183 220663171#1 220663171#2 -436942179#0 220663181#1 220663181#3 220663181#4"/>
    </vehicle>
    <vehicle id="veh44" type="veh_passenger" depart="126.21" departLane="best" departSpeed="max">
        <route edges="-437188444 437188443#2 437188443#4 -220663168#11 -220663168#9 -220663168#8 -220663168#7 -220663168#6 -220663168#5 -220663168#4 -220663168#3 -220663168#1 -220663168#0 5199272#17 5199272#19 5199272#20 5199272#21 5199272#22 370558334#0"/>
    </vehicle>
    <vehicle id="veh45" type="veh_passenger" depart="129.07" departLane="best" departSpeed="max">
        <route edges="-220664818#1 220664848#0 220664848#1 220664848#2 220664902#0 220664902#1 -220664825#3 -220664825#2 -220664825#1 -220664825#0 216613128#6 579528238 216613134#19 216613134#21 216613134#22 216613134#23 535372281#3 535372281#4 535372281#5 5199272#0 5199272#2 5199272#5 5199272#6 5199272#7 5199272#10 5199272#11 5199272#12 5199272#13 5199272#15 5199272#16 5199272#17 5199272#19 5199272#20 5199272#21 92439815#0 -134147975#8 -134147975#4 134147973#7 1158119629"/>
    </vehicle>
    <vehicle id="veh46" type="veh_passenger" depart="131.94" departLane="best">
        <route edges="-535256828 -220664825#3 -220664825#2 -220664825#1 -220664825#0 216613128#6 579528238 216613134#19 216613134#21 216613134#22 216613134#23 535372281#3 535372281#4 535372281#5 5199272#0 5199272#2 5199272#5 5199272#6 5199272#7 5199272#10 5199272#11 5199272#12 5199272#13 5199272#15 5199272#16 5199272#17 5199272#19 -560546951#8 -560546951#7 -560546951#6 -560546951#5 -560546951#4"/>
    </vehicle>
    <vehicle id="veh47" type="veh_passenger" depart="134.81" departLane="best" departSpeed="max">
        <route edges="461597717#0 -461597716 461597713#1 -220664825#2 -220664825#1 -220664825#0 216613128#6 579528238 216613134#19 216613134#21 216613134#22 216613134#23 535372281#3 535372281#4 535372281#5 5199272#0 5199272#2 5199272#5 5199272#6 5199272#7 5199272#10 5199272#11 5199272#12 5199272#13 5199272#15 5199272#16 5199272#17 -11102786#4 -11102786#3 -11102786#2 11102789#0 11102789#1 -437188480"/>
    </vehicle>
    <vehicle id="veh48" type="veh_passenger" depart="137.68" departLane="best" departSpeed="max">
        <route edges="-589219716 -437188468#0 535357577#3 535357577#4 535357577#5 535357577#6 220663168#11 535357576#0 535357576#1 535357576#2 535357576#3 -5199272#1 535372281#1 11102716#0 11102716#1 216613128#1 216613128#2 216613128#5 220664825#0 220664825#1 220664825#2 220664825#3 535256828 -220664886#1 -220664886#0 -420087180"/>
    </vehicle>
    <vehicle id="veh49" type="veh_passenger" depart="140.55" departLane="best">
        <route edges="5199272#16 5199272#17 5199272#19 5199272#20 5199272#21 5199272#22 370558334#0 370558334#1 370558334#2 461597762#0 461597763"/>
    </vehicle>
    <vehicle id="veh50" type="veh_passenger" depart="143.42" departLane="best" departSpeed="max">
        <route edges="-437188463#2 -437188463#1 -437188463#0 -220663180#2 -461597755 -5199272#17 220663168#0 220663168#1 220663168#2 220663168#4 -370558333#4 370558330"/>
    </vehicle>
    <vehicle id="veh51" type="veh_passenger" depart="146.28" departLane="best">
        <route edges="216613134#21 216613134#22 216613134#23 535372281#3 535372281#4 535372281#5 5199272#0 5199272#2 5199272#5 5199272#6 5199272#7 -535357582#4 -535357582#3 -436944115 -370558328#1 -370558328#0 -370558329#2"/>
    </vehicle>
    <vehicle id="veh52" type="veh_passenger" depart="149.15" departLane="best">
        <route edges="420087181#0 420087181#1 220664886#0 220664886#1 -535256828 -220664825#3 -220664825#2 -220664825#1 -220664825#0 216613128#6 579528238 216613134#19 -436944109 220663183#1 -436942183 220663171#1 220663171#2 -436942179#0 220663181#1 220663181#3 220663181#4"/>
    </vehicle>
    <vehicle id="veh53" type="veh_passenger" depart="152.02" departLane="best" departSpeed="max">
        <route edges="436942164#0 436942164#1 436942180#0 436942180#1 436942181#0 436942181#1 436942179#2 216613134#13 216613134#14 216613134#19 216613134#21 216613134#22 216613134#23 535372281#3 535372281#4 535372281#5 5199272#0 5199272#2 5199272#5 5199272#6 -220663174#3"/>
    </vehicle>
    <vehicle id="veh54" type="veh_passenger" depart="154.89" departLane="best" departSpeed="max">
        <route edges="-1063830991 11102786#1 11102786#2 11102786#3 11102786#4 -5199272#17 -5199272#16 -5199272#15 -5199272#13"/>
    </vehicle>
    <vehicle id="veh55" type="veh_passenger" depart="157.76" departLane="best">
        <route edges="-11102789#2 -11102789#1 -11102789#0 11102786#2 11102786#3 11102786#4 461597755 220663180#1 220663180#3 535357579#0 535357579#1 535357579#2 535357579#3"/>
    </vehicle>
    <vehicle id="veh56" type="veh_passenger" depart="160.63" departLane="best" departSpeed="max">
        <route edges="-437188466 -370558329#0 535357582#1 535357582#2 535357582#3 535357582#4 -5199272#9 -5199272#6 -5199272#5 -5199272#4 -5199272#1 535372281#1 11102716#0 11102716#1 216613128#1 216613128#2 216613128#5 220664825#0 220663185#0 220663185#1 220663185#2 220663170#0 220663170#1 220663170#2 220663170#3 220663170#4 220663170#5 220663170#6"/>
    </vehicle>
    <vehicle id="veh57" type="veh_passenger" depart="163.49" departLane="best" departSpeed="max">
        <route edges="461597717#0 -461597716 461597713#1 -220664825#2 -220664825#1 -220664825#0 216613128#6 579528238 216613134#19 216613134#21 216613134#22 216613134#23 535372281#3 535372280#0 535372280#1 535372280#2"/>
    </vehicle>
    <vehicle id="veh58" type="veh_passenger" depart="166.36" departLane="best" departSpeed="max">
        <route edges="-220663181#4 1219699098 436942180#1 436942181#0 436942181#1 436942179#2 216613134#13 216613134#14 216613134#19 216613134#21 216613134#22 216613134#23 535372281#3 535372281#4 535372281#5 535372281#1 11102716#0 11102716#1 216613128#1 216613128#2 216613128#5"/>
    </vehicle>
    <vehicle id="veh59" type="veh_passenger" depart="169.23" departLane="best">
        <route edges="-220663170#2 -220663170#1 -220663170#0 -220663185#2 -220663185#1 -220663185#0 -220664825#0 216613128#6 579528238 216613134#19 216613134#21 216613134#22 216613134#23 535372281#3 535372281#4 535372281#5 5199272#0 5199272#2 5199272#5 5199272#6 5199272#7 5199272#10 5199272#11 5199272#12 5199272#13 5199272#15 220663169 -220663180#3 437188463#0 437188463#1 437188465"/>
    </vehicle>
    <vehicle id="veh60" type="veh_passenger" depart="172.10" departLane="best">
        <route edges="420087184#0 420087184#1 -220664912#0"/>
    </vehicle>
    <vehicle id="veh61" type="veh_passenger" depart="174.97" departLane="best">
        <route edges="-535357580#2 -535357580#1 220663178#0 220663178#1 220663187#3 220663187#4 220663187#5 436944116 220663186#1 220663186#2"/>
    </vehicle>
    <vehicle id="veh62" type="veh_passenger" depart="177.84" departLane="best">
        <route edges="437188443#2 -437188445 -589854940#0 -589854941 -535357577#4 370558325#0 370558325#1 5153767#1 5153767#2 589854938#0 589854938#1 5153768#0 5153768#1 437188478#0 437188478#1 560546951#4 -461597765 -370558334#5 461597764#0 461597764#1"/>
    </vehicle>
    <vehicle id="veh63" type="veh_passenger" depart="180.70" departLane="best" departSpeed="max">
        <route edges="-461597766 560546951#3 560546951#4 560546951#5 560546951#6 560546951#7 560546951#8 -5199272#19 -5199272#17 -5199272#16 -5199272#15 -5199272#13 -5199272#12 -5199272#11 -5199272#10 -5199272#9 -5199272#6 -5199272#5 -5199272#4 -5199272#1 535372281#1 11102716#0 11102716#1 216613128#1 216613128#2 216613128#5 216613128#6 579528238 216613134#19 -436944109 220663183#1 -436942183 220663171#1 220663171#2 436942179#1 -436942181#1 -436942182#0"/>
    </vehicle>
    <vehicle id="veh64" type="veh_passenger" depart="183.57" departLane="best">
        <route edges="11102786#2 11102786#3 11102786#4 -5199272#17 220663168#0 220663168#1 220663168#2 220663168#4 220663168#5 220663168#6 -437188449"/>
    </vehicle>
    <vehicle id="veh65" type="veh_passenger" depart="186.44" departLane="best">
        <route edges="5199272#11 5199272#12 5199272#13 5199272#15 220663169"/>
    </vehicle>
    <vehicle id="veh66" type="veh_passenger" depart="189.31" departLane="best">
        <route edges="-220664825#3 -220664825#2 -220664825#1 -220664825#0 216613128#6 579528238 216613134#19 216613134#21 216613134#22 216613134#23 535372281#3 535372281#4 535372281#5 535372281#1 11102716#0 -437188452#6 -437188452#4 -437188452#3 -461597731 -437188453#2 -437188453#1 -437188453#0 -437188446#1 -437188446#0 -437188443#0"/>
    </vehicle>
    <vehicle id="veh67" type="veh_passenger" depart="192.18" departLane="best" departSpeed="max">
        <route edges="-420087186 535248205#5 216613128#1 216613128#2 216613128#5 216613128#6 579528238 216613134#19 216613134#21 216613134#22 -220663189#3 -436944112#1"/>
    </vehicle>
    <vehicle id="veh68" type="veh_passenger" depart="195.05" departLane="best">
        <route edges="-220663170#4 -220663170#3 -220663170#2 -220663170#1 -220663170#0 -220663185#2 -220663185#1 -220663185#0 -220664825#0 216613128#6 579528238 216613134#19 216613134#21 216613134#22 216613134#23 535372281#3 535372281#4 535372281#5 5199272#0 5199272#2 5199272#5 5199272#6 5199272#7 -535357582#4 -535357582#3 -436944115 -370558328#1 -370558328#0"/>
    </vehicle>
    <vehicle id="veh69" type="veh_passenger" depart="197.91" departLane="best" departSpeed="max">
        <route edges="441903769#0 134147975#5 -92439815#1 -5199272#21 -5199272#20 -5199272#19 461597755 -220663180#0"/>
    </vehicle>
    <vehicle id="veh70" type="veh_passenger" depart="200.78" departLane="best">
        <route edges="535357576#3 -5199272#1 535372281#1 11102716#0 11102716#1 216613128#1 216613128#2 216613128#5 220664825#0 220664825#1"/>
    </vehicle>
    <vehicle id="veh71" type="veh_passenger" depart="203.65" departLane="best" departSpeed="max">
        <route edges="437188443#0 437188446#0 437188446#1 437188453#0 437188453#1 437188453#2 461597731 437188452#3 437188452#4 437188452#5 11102716#1 216613128#1 -420087190#2 -461597721 -430849672#1 -420087188"/>
    </vehicle>
    <vehicle id="veh72" type="veh_passenger" depart="206.52" departLane="best">
        <route edges="-220663186#0 -220663177 220663168#5 220663168#6 220663168#7 220663168#8 220663168#9 -589227265#1 1111941525"/>
    </vehicle>
    <vehicle id="veh73" type="veh_passenger" depart="209.39" departLane="best">
        <route edges="370558327#2 11102786#0 11102786#1 11102786#2 11102786#3 11102786#4 -5199272#17 -5199272#16 -5199272#15 -5199272#13 -5199272#12 -5199272#11 -5199272#10 -5199272#9 -5199272#6 -5199272#5 -5199272#4 -5199272#1 535372281#1 11102716#0 11102716#1 -535248205#5 -535248205#4 -535248205#3 -535248205#2 420087184#0 -420087182#1"/>
    </vehicle>
    <vehicle id="veh74" type="veh_passenger" depart="212.26" departLane="best" departSpeed="max">
        <route edges="589227265#0 589227265#1 -220663168#9 -220663168#8 437188448#0 437188448#2 437188448#3 -5199272#5 -5199272#4 -5199272#1 535372281#1 11102716#0 11102716#1 216613128#1 216613128#2 216613128#5 216613128#6 579528238 216613134#19 216613134#21 216613134#22 -220663189#3"/>
    </vehicle>
    <vehicle id="veh75" type="veh_passenger" depart="215.12" departLane="best" departSpeed="max">
        <route edges="-461597759#2 -461597759#1 -461597759#0 -370558334#0 -5199272#22 -5199272#21 -5199272#20 -5199272#19 -5199272#17 -5199272#16 -5199272#15 -5199272#13 -5199272#12 -5199272#11 -5199272#10 -5199272#9 -5199272#6 -5199272#5 -5199272#4 -5199272#1 535372281#1 11102716#0 11102716#1 -535248205#5 -535248205#4 -535248205#3"/>
    </vehicle>
    <vehicle id="veh76" type="veh_passenger" depart="217.99" departLane="best" departSpeed="max">
        <route edges="441903769#0 134147975#5 -92439815#1 -5199272#21 -5199272#20 -5199272#19 -5199272#17 -5199272#16 -5199272#15 -437188462"/>
    </vehicle>
    <vehicle id="veh77" type="veh_passenger" depart="220.86" departLane="best">
        <route edges="-370558334#2 -370558334#1 -370558334#0 5199272#23 134147980#0 134147980#1 134147980#2 134147980#3 11102771 134147967#0 134147967#1"/>
    </vehicle>
    <vehicle id="veh78" type="veh_passenger" depart="223.73" departLane="best" departSpeed="max">
        <route edges="-461597766 560546951#3 560546951#4 560546951#5 560546951#6 560546951#7 560546951#8 5199272#20 5199272#21 92439815#0 -134147975#8 -441903769#2"/>
    </vehicle>
    <vehicle id="veh79" type="veh_passenger" depart="226.60" departLane="best">